%nprocs=16
%mem=128GB
%chk=PM6.chk
#p PM6 opt(calcfc,tight,maxcyc=100) SCF=tight freq

PM6 opt

0 1
 C                 -1.02278309   -0.94684057    3.46289576
 C                  0.30970653   -1.36029222    3.46214424
 C                  1.33137953   -0.41233585    3.46289576
 C                  1.02319436    0.94835984    3.46214424
 C                 -0.30859644    1.35917642    3.46289576
 C                 -1.33290089    0.41193239    3.46214424
 H                  0.55225642   -2.43286441    3.46263686
 H                  1.83079417    1.69470030    3.46263686
 H                 -2.38305059    0.73816411    3.46263686
 C                  2.80468181   -0.86977482    3.46249430
 C                  3.76319910   -0.34270294    2.67643837
 C                  3.04683487   -1.85528140    4.33164670
 C                  5.00662682   -0.86128453    2.80256935
 C                  3.50188525    0.69666011    1.76787483
 C                  4.27936389   -2.36891833    4.45779745
 H                  2.18904002   -2.21232982    4.92672527
 C                  5.98524392   -0.34746332    2.02202808
 C                  5.26442549   -1.86575544    3.68522949
 C                  4.48485895    1.20405145    0.98860268
 C                  2.27555441    1.23471340    1.62276995
 C                  4.48649186   -3.37264261    5.35519456
 C                  7.21471712   -0.87922263    2.16370297
 C                  5.72524679    0.67907716    1.11817261
 C                  6.50898941   -2.37369495    3.80115457
 C                  4.23425772    2.20848618    0.10383108
 C                  2.01890939    2.22029281    0.75786893
 H                  1.38955568    0.91892369    2.19057167
 N                  5.77897885   -3.86176472    5.44691081
 O                  3.59515321   -3.82129588    6.04335060
 C                  7.47841740   -1.86477536    3.02650956
 C                  8.12301598   -0.55429648    1.07812697
 C                  6.68820299    1.19981697    0.33332262
 C                  6.81736050   -3.37763613    4.66873476
 C                  5.22360242    2.70519771   -0.66743751
 C                  2.99265568    2.72284064   -0.01551877
 H                  0.97892966    2.58687975    0.71952497
 C                  6.00684577   -4.94995277    6.36357658
 H                  8.52040678   -2.22589378    3.06208619
 C                  9.29487023   -1.22310312    0.88517008
 C                  8.03595349    0.86355156    0.75705988
 C                  6.45311796    2.18522588   -0.53787858
 O                  7.93762612   -3.83059895    4.76445696
 C                  5.02369813    3.70859372   -1.56683771
 C                  2.69144828    3.72703778   -0.88531657
 H                  7.02592201   -4.88086350    6.70318075
 H                  5.38022502   -4.89868490    7.22378654
 H                  5.91492032   -5.88827307    5.92324038
 C                 10.34288536   -0.52356167    0.40898720
 C                  9.36784650   -2.52676643    1.16876072
 C                  9.13246747    1.52095702    0.28456413
 H                  7.31404822    2.53677992   -1.13169919
 N                  3.73402289    4.20442350   -1.66205075
 O                  5.91885415    4.15142671   -2.25380768
 O                  1.57380801    4.18578852   -0.98411489
 C                 10.26511306    0.81045521    0.12102440
 C                 11.49778411   -1.20635959    0.22339701
 C                 10.51121117   -3.20376336    0.98639556
 H                  8.44957854   -3.00158941    1.55443052
 C                  9.05274038    2.82465426    0.00295392
 C                  3.44063923    5.29294084   -2.55949641
 C                 11.34350928    1.48202824   -0.34854889
 C                 12.57618032   -0.53478657   -0.24617628
 C                 11.57559605   -2.53506063    0.51140386
 C                 10.50767493   -4.52013995    1.28555809
 C                 10.11963508    3.49054206   -0.46308665
 H                  8.07609061    3.30900140    0.17318065
 H                  4.11406567    5.21534478   -3.39561624
 H                  2.44817852    5.24981074   -2.94472968
 H                  3.60984864    6.23087271   -2.14183237
 C                 12.49840801    0.79923032   -0.53413909
 C                 11.26569733    2.81072927   -0.63655574
 C                 13.70882592   -1.24528838   -0.40971602
 C                 12.72165829   -3.21487342    0.33793476
 N                 11.73216639   -5.17936024    1.09041926
 O                  9.53059012   -5.10423217    1.70206100
 C                  9.96723017    4.80770244   -0.71650199
 C                 13.54642315    1.49877177   -1.01032195
 C                 12.33008220    3.47943200   -1.11154744
 C                 13.78855299   -2.54898562   -0.12810580
 C                 14.80533989   -0.58788291   -0.88221176
 C                 12.87406321   -4.53203379    0.59135011
 C                 11.80868817   -6.63493613    1.37620199
 N                 11.10912699    5.45502889   -1.21557113
 O                  8.92544227    5.40194185   -0.54074472
 C                 13.47344689    2.80243508   -1.29391260
 C                 14.71827739    0.82996512   -1.20327885
 C                 12.33361844    4.79580860   -1.41070998
 H                 14.76520277   -3.03333276   -0.29833252
 C                 15.76422292   -1.22908433   -1.77880586
 O                 13.91585111   -5.12627319    0.41559283
 H                 12.86426024   -6.87373384    1.65419022
 H                 11.06841574   -6.86470764    2.18102244
 H                 11.56018292   -7.18382600    0.53851140
 C                 11.03260520    6.91060479   -1.50135387
 H                 14.39171483    3.27725806   -1.67958239
 C                 16.01544372    1.45982728   -0.96852350
 O                 13.31070325    5.37990081   -1.82721287
 C                 16.92403357   -0.55401445   -1.89527042
 C                 15.63074769   -2.50302627   -2.15899466
 H                 11.77287764    7.14037628   -2.30617432
 H                  9.97703314    7.14940249   -1.77934210
 H                 11.28111045    7.45949464   -0.66366327
 C                 17.04806247    0.77373790   -1.49523403
 C                 16.12030371    2.73391304   -0.57994009
 C                 17.97045815   -1.22934634   -2.42429859
 C                 16.66794032   -3.17317211   -2.68244539
 H                 14.63636980   -2.95999468   -2.01825888
 C                 18.22064284    1.43791672   -1.61717721
 C                 17.28205461    3.39300664   -0.70157543
 H                 15.21176195    3.20044584   -0.16243189
 C                 19.14549314   -0.57050844   -2.55147466
 C                 17.84540064   -2.52788760   -2.81501853
 C                 16.49240911   -4.47086406   -3.05777246
 C                 19.27200926    0.76788856   -2.14314231
 C                 18.33850292    2.73649416   -1.22434580
 C                 17.34911900    4.69124377   -0.29442835
 C                 20.17309670   -1.26181954   -3.08115755
 C                 18.89697859   -3.18972238   -3.34088833
 N                 17.59798879   -5.11522571   -3.58755219
 O                 15.43015160   -5.04239361   -2.93820638
 C                 20.42925384    1.44821826   -2.25441045
 C                 19.51358859    3.38713736   -1.35169412
 N                 18.57159622    5.32390422   -0.44761163
 O                 16.39595488    5.27290315    0.17725333
 C                 20.06116302   -2.53592143   -3.46770958
 H                 21.17929097   -0.85050687   -3.24087819
 C                 18.82266384   -4.48816584   -3.74611406
 C                 17.49195025   -6.47686133   -4.04696154
 C                 20.55567948    2.72224731   -1.87210981
 H                 21.35841730    1.02717817   -2.66244988
 C                 19.68198276    4.68510796   -0.97406770
 C                 18.74315150    6.68521054   -0.00742240
 H                 20.96606898   -3.00699173   -3.88800949
 O                 19.77148077   -5.07462732   -4.22060585
 H                 18.40185632   -7.01940195   -3.93310294
 H                 16.74753567   -6.96657865   -3.44310346
 H                 17.16111790   -6.55740315   -5.03024899
 H                 21.54854808    3.18377910   -2.00854450
 O                 20.74214475    5.26147199   -1.08893362
 H                 19.45232690    7.21961340   -0.59625768
 H                 17.79506341    7.18343467   -0.11476480
 H                 18.99669989    6.76614082    0.99853722
 C                 -2.15558799   -1.99403828    3.46249430
 C                 -2.17838900   -3.08767455    2.67643837
 C                 -3.13013826   -1.71099570    4.33164670
 C                 -3.24920769   -3.90522375    2.80256935
 C                 -1.14761727   -3.38105165    1.76787483
 C                 -4.19122539   -2.52157867    4.45779745
 H                 -3.01045384   -0.78959935    4.92672527
 C                 -3.29353402   -5.00964162    2.02202808
 C                 -4.24800435   -3.62624850    3.68522949
 C                 -1.19969033   -4.48602751    0.98860268
 C                 -0.06848404   -2.58804463    1.62276995
 C                 -5.16404011   -2.19909462    5.35519456
 C                 -4.36878769   -5.80851699    2.16370297
 C                 -2.27452532   -5.29774775    1.11817261
 C                 -5.31017484   -4.45010270    3.80115457
 C                 -0.20452372   -4.77121784    0.10383108
 C                  0.91337528   -2.85857323    0.75786893
 H                  0.10103342   -1.66285236    2.19057167
 N                 -6.23387578   -3.07386014    5.44691081
 O                 -5.10691592   -1.20284607    6.04335060
 C                 -5.35415153   -5.54411177    3.02650956
 C                 -4.54154283   -6.75758996    1.07812697
 C                 -2.30502952   -6.39206218    0.33332262
 C                 -6.33379895   -4.21518932    4.66873476
 C                 -0.26903127   -5.87637125   -0.66743751
 C                  0.86172133   -3.95313617   -0.01551877
 H                  1.75083875   -2.14121783    0.71952497
 C                 -7.29020773   -2.72710465    6.36357658
 H                 -6.18788395   -6.26594183    3.06208619
 C                 -5.70667349   -7.43804219    0.88517008
 C                 -3.27011915   -7.39111565    0.75705988
 C                 -1.33409785   -6.68117703   -0.53787858
 O                 -7.28620907   -4.95888639    4.76445696
 C                  0.69988731   -6.20494706   -1.56683771
 C                  1.88198526   -4.19438148   -0.88531657
 H                 -7.73991279   -3.64419519    6.70318075
 H                 -6.93249808   -2.21006909    7.22378654
 H                 -8.05685422   -2.17833472    5.92324038
 C                 -5.62486039   -8.69542064    0.40898720
 C                 -6.87216717   -6.84940983    1.16876072
 C                 -3.24904632   -8.66942733    0.28456413
 H                 -1.46010826   -7.60254152   -1.13169919
 N                  1.77412612   -5.33597043   -1.66205075
 O                  0.63581392   -7.20159141   -2.25380768
 O                  2.83809519   -3.45585198   -0.98411489
 C                 -4.43068172   -9.29507629    0.12102440
 C                 -6.79363011   -9.35419333    0.22339701
 C                 -8.03014604   -7.50109422    0.98639556
 H                 -6.82424195   -5.81675496    1.55443052
 C                 -2.08014785   -9.25223027    0.00295392
 C                  2.86350161   -5.62615140   -2.55949641
 C                 -4.38828053  -10.56478132   -0.34854889
 C                 -6.75122892  -10.62389835   -0.24617628
 C                 -7.98322493   -8.75722993    0.51140386
 C                 -9.16839349   -6.83984345    1.28555809
 C                 -2.03691944  -10.50913209   -0.46308665
 H                 -1.17236603   -8.64860033    0.17318065
 H                  2.45958824   -6.17055777   -3.39561624
 H                  3.32238021   -4.74509016   -2.94472968
 H                  3.59116973   -6.24165698   -2.14183237
 C                 -5.55705025  -11.22355401   -0.53413909
 C                 -3.19868571  -11.16174471   -0.63655574
 C                 -7.93286433  -11.24954731   -0.40971602
 C                 -9.14499120   -9.40984255    0.33793476
 N                -10.35154074   -7.57067402    1.09041926
 O                 -9.18568979   -5.70161707    1.70206100
 C                 -0.82002263  -11.03572575   -0.71650199
 C                 -5.47523715  -12.48093246   -1.01032195
 C                 -3.15176459  -12.41788042   -1.11154744
 C                 -9.10176279  -10.66674436   -0.12810580
 C                 -7.91179148  -12.52785900   -0.88221176
 C                -10.36188800   -8.88324889    0.59135011
 C                -11.65036733   -6.90915588    1.37620199
 N                 -0.83036990  -12.34830063   -1.21557113
 O                  0.21549773  -10.43063067   -0.54074472
 C                 -4.30974347  -13.06956482   -1.29391260
 C                 -6.64036781  -13.16138468   -1.20327885
 C                 -2.01351714  -13.07913119   -1.41070998
 H                -10.00954461  -11.27037432   -0.29833252
 C                 -8.94652971  -13.03767535   -1.77880586
 O                -11.39740837   -9.48834398    0.41559283
 H                -12.38495824   -7.70390925    1.65419022
 H                -11.47921907   -6.15317539    2.18102244
 H                -12.00146727   -6.41949909    0.53851140
 C                  0.46845670  -13.00981877   -1.50135387
 H                 -4.35766868  -14.10221968   -1.67958239
 C                 -6.74347435  -14.59969476   -0.96852350
 O                 -1.99622085  -14.21735756   -1.82721287
 C                 -8.94180737  -14.37963578   -1.89527042
 C                 -9.98305818  -12.28511144   -2.15899466
 H                  0.29730844  -13.76579925   -2.30617432
 H                  1.20304761  -12.21506540   -1.77934210
 H                  0.81955663  -13.49947555   -0.66366327
 C                 -7.85395456  -15.15092413   -1.49523403
 C                 -5.69251371  -15.32754905   -0.57994009
 C                -10.04987423  -14.94820010   -2.42429859
 C                -11.08201782  -12.84827369   -2.68244539
 H                 -9.88161549  -11.19547072   -2.01825888
 C                 -7.86504901  -16.49849793   -1.61717721
 C                 -5.70259736  -16.66320164   -0.70157543
 H                 -4.83421358  -14.77399520   -0.16243189
 C                -10.06682137  -16.29522920   -2.55147466
 C                -11.11191520  -14.19062649   -2.81501853
 C                -12.11808641  -12.04741323   -3.05777246
 C                 -8.97099363  -17.07399388   -2.14314231
 C                 -6.79937800  -17.24985647   -1.22434580
 C                 -4.61182323  -17.37039967   -0.29442835
 C                -11.17931613  -16.83950445   -3.08115755
 C                -12.21086991  -14.77040233   -3.34088833
 N                -13.22890981  -12.68269249   -3.58755219
 O                -12.08191676  -10.84170646   -2.93820638
 C                 -8.96043311  -18.41636193   -2.25441045
 C                 -6.82344729  -18.59283212   -1.35169412
 N                 -4.67516181  -18.74542623   -0.44761163
 O                 -3.63150936  -16.83576502    0.17725333
 C                -12.22675389  -16.10551609   -3.46770958
 H                -11.32620604  -17.91655058   -3.24087819
 C                -13.29819755  -14.05682213   -3.74611406
 C                -14.35510157  -11.91004261   -4.04696154
 C                 -7.92030442  -19.16286427   -1.87210981
 H                 -9.78964626  -19.01052105   -2.66244988
 C                 -5.78356887  -19.38765105   -0.97406770
 C                 -3.58201359  -19.57465062   -0.00742240
 H                -13.08716572  -16.65365249   -3.88800949
 O                -14.28049656  -14.58529096   -4.22060585
 H                -15.27990857  -12.42677407   -3.93310294
 H                -14.40700192  -11.02050201   -3.44310346
 H                -14.25943666  -11.58326248   -5.03024899
 H                 -8.01704046  -20.25347960   -2.00854450
 O                 -5.81450398  -20.59396028   -1.08893362
 H                 -3.47379484  -20.45601596   -0.59625768
 H                 -2.67649480  -19.00269431   -0.11476480
 H                 -3.63870011  -19.83469510    0.99853722
 C                 -0.64909381    2.86381310    3.46249430
 C                 -1.58481010    3.43037749    2.67643837
 C                  0.08330339    3.56627710    4.33164670
 C                 -1.75741913    4.76650827    2.80256935
 C                 -2.35426798    2.68439153    1.76787483
 C                 -0.08813849    4.89049700    4.45779745
 H                  0.82141382    3.00192918    4.92672527
 C                 -2.69170990    5.35710494    2.02202808
 C                 -1.01642114    5.49200393    3.68522949
 C                 -3.28516862    3.28197606    0.98860268
 C                 -2.20707037    1.35333123    1.62276995
 C                  0.67754825    5.57173723    5.35519456
 C                 -2.84592943    6.68773962    2.16370297
 C                 -3.45072147    4.61867058    1.11817261
 C                 -1.19881457    6.82379766    3.80115457
 C                 -4.02973400    2.56273166    0.10383108
 C                 -2.93228468    0.63828042    0.75786893
 H                 -1.49058910    0.74392867    2.19057167
 N                  0.45489692    6.93562485    5.44691081
 O                  1.51176271    5.02414195    6.04335060
 C                 -2.12426587    7.40888713    3.02650956
 C                 -3.58147316    7.31188644    1.07812697
 C                 -4.38317347    5.19224521    0.33332262
 C                 -0.48356156    7.59282545    4.66873476
 C                 -4.95457115    3.17117354   -0.66743751
 C                 -3.85437701    1.23029552   -0.01551877
 H                 -2.72976841   -0.44566192    0.71952497
 C                  1.28336196    7.67705742    6.36357658
 H                 -2.33252283    8.49183561    3.06208619
 C                 -3.58819674    8.66114530    0.88517008
 C                 -4.76583434    6.52756408    0.75705988
 C                 -5.11902011    4.49595115   -0.53787858
 O                 -0.65141706    8.78948535    4.76445696
 C                 -5.72358544    2.49635334   -1.56683771
 C                 -4.57343354    0.46734369   -0.88531657
 H                  0.71399078    8.52505869    6.70318075
 H                  1.55227306    7.10875399    7.22378654
 H                  2.14193390    8.06660779    5.92324038
 C                 -4.71802498    9.21898230    0.40898720
 C                 -2.49567933    9.37617626    1.16876072
 C                 -5.88342115    7.14847032    0.28456413
 H                 -5.85393996    5.06576161   -1.13169919
 N                 -5.50814900    1.13154693   -1.66205075
 O                 -6.55466807    3.05016470   -2.25380768
 O                 -4.41190320   -0.72993654   -0.98411489
 C                 -5.83443133    8.48462107    0.12102440
 C                 -4.70415400   10.56055292    0.22339701
 C                 -2.48106513   10.70485758    0.98639556
 H                 -1.62533659    8.81834437    1.55443052
 C                 -6.97259253    6.42757602    0.00295392
 C                 -6.30414084    0.33321056   -2.55949641
 C                 -6.95522875    9.08275308   -0.34854889
 C                 -5.82495140   11.15868492   -0.24617628
 C                 -3.59237112   11.29229055    0.51140386
 C                 -1.33928144   11.35998340    1.28555809
 C                 -8.08271564    7.01859003   -0.46308665
 H                 -6.90372458    5.33959893    0.17318065
 H                 -6.57365390    0.95521299   -3.39561624
 H                 -5.77055873   -0.50472058   -2.94472968
 H                 -7.20101837    0.01078427   -2.14183237
 C                 -6.94135777   10.42432369   -0.53413909
 C                 -8.06701161    8.35101544   -0.63655574
 C                 -5.77596159   12.49483569   -0.40971602
 C                 -3.57666709   12.62471597    0.33793476
 N                 -1.38062566   12.75003425    1.09041926
 O                 -0.34490033   10.80584925    1.70206100
 C                 -9.14720753    6.22802331   -0.71650199
 C                 -8.07118600   10.98216069   -1.01032195
 C                 -9.17831761    8.93844842   -1.11154744
 C                 -4.68679020   13.21572998   -0.12810580
 C                 -6.89354841   13.11574191   -0.88221176
 C                 -2.51217521   13.41528268    0.59135011
 C                 -0.15832084   13.54409201    1.37620199
 N                -10.27875709    6.89327175   -1.21557113
 O                 -9.14094000    5.02868882   -0.54074472
 C                 -9.16370342   10.26712974   -1.29391260
 C                 -8.07790958   12.33141956   -1.20327885
 C                -10.32010130    8.28332259   -1.41070998
 H                 -4.75565816   14.30370707   -0.29833252
 C                 -6.81769321   14.26675968   -1.77880586
 O                 -2.51844274   14.61461717    0.41559283
 H                 -0.47930200   14.57764309    1.65419022
 H                  0.41080334   13.01788303    2.18102244
 H                  0.44128435   13.60332508    0.53851140
 C                -11.50106190    6.09921398   -1.50135387
 H                -10.03404615   10.82496162   -1.67958239
 C                 -9.27196937   13.13986748   -0.96852350
 O                -11.31448240    8.83745675   -1.82721287
 C                 -7.98222620   14.93365022   -1.89527042
 C                 -5.64768951   14.78813771   -2.15899466
 H                -12.07018607    6.62542297   -2.30617432
 H                -11.18008075    5.06566290   -1.77934210
 H                -12.10066708    6.03998091   -0.66366327
 C                 -9.19410791   14.37718623   -1.49523403
 C                -10.42779000   12.59363601   -0.57994009
 C                 -7.92058391   16.17754644   -2.42429859
 C                 -5.58592250   16.02144580   -2.68244539
 H                 -4.75475431   14.15546540   -2.01825888
 C                -10.35559382   15.06058121   -1.61717721
 C                -11.57945725   13.27019500   -0.70157543
 H                -10.37754837   11.57354937   -0.16243189
 C                 -9.07867177   16.86573765   -2.55147466
 C                 -6.73348543   16.71851409   -2.81501853
 C                 -4.37432271   16.51827729   -3.05777246
 C                -10.30101563   16.30610532   -2.14314231
 C                -11.53912491   14.51336231   -1.22434580
 C                -12.73729578   12.67915591   -0.29442835
 C                 -8.99378057   18.10132399   -3.08115755
 C                 -6.68610869   17.96012471   -3.34088833
 N                 -4.36907898   17.79791820   -3.58755219
 O                 -3.34823483   15.88410007   -2.93820638
 C                -11.46882072   16.96814367   -2.25441045
 C                -12.69014130   15.20569476   -1.35169412
 N                -13.89643441   13.42152201   -0.44761163
 O                -12.76444552   11.56286187    0.17725333
 C                 -7.83440913   18.64143752   -3.46770958
 H                 -9.85308493   18.76705745   -3.24087819
 C                 -5.52446629   18.54498797   -3.74611406
 C                 -3.13684868   18.38690394   -4.04696154
 C                -12.63537506   16.44061697   -1.87210981
 H                -11.56877103   17.98334288   -2.66244988
 C                -13.89841390   14.70254309   -0.97406770
 C                -15.16113791   12.88944008   -0.00742240
 H                 -7.87890327   19.66064422   -3.88800949
 O                 -5.49098422   19.65991828   -4.22060585
 H                 -3.12194775   19.44617602   -3.93310294
 H                 -2.34053374   17.98708066   -3.44310346
 H                 -2.90168124   18.14066563   -5.03024899
 H                -13.53150762   17.06970050   -2.00854450
 O                -14.92764078   15.33248829   -1.08893362
 H                -15.97853206   13.23640256   -0.59625768
 H                -15.11856861   11.81925964   -0.11476480
 H                -15.35799978   13.06855429    0.99853722

 1 2 1.5 6 1.5 143 1.0
 2 3 1.5 7 1.0
 3 4 1.5 10 1.0
 4 5 1.5 8 1.0
 5 6 1.5 276 1.0
 6 9 1.0
 7
 8
 9
 10 11 2.0 12 2.0
 11 13 2.0 14 2.0
 12 15 2.0 16 1.0
 13 17 2.0 18 2.0
 14 19 2.0 20 2.0
 15 18 2.0 21 2.0
 16
 17 22 2.0 23 2.0
 18 24 2.0
 19 23 2.0 25 2.0
 20 26 2.0 27 1.0
 21 28 1.0 29 2.0
 22 30 2.0 31 1.5
 23 32 2.0
 24 30 2.0 33 2.0
 25 34 2.0 35 2.0
 26 35 2.0 36 1.0
 27
 28 33 1.0 37 1.0
 29
 30 38 1.0
 31 39 1.0 40 1.5
 32 41 2.0 40 1.5
 33 42 2.0
 34 41 2.0 43 2.0
 35 44 2.0
 36
 37 45 1.0 46 1.0 47 1.0
 38
 39 48 2.0 49 2.0
 40 50 1.0
 41 51 1.0
 42
 43 52 1.0 53 2.0
 44 52 1.0 54 2.0
 45
 46
 47
 48 55 2.0 56 2.0
 49 57 2.0 58 1.0
 50 55 2.0 59 2.0
 51
 52 60 1.0
 53
 54
 55 61 2.0
 56 62 2.0 63 2.0
 57 63 2.0 64 2.0
 58
 59 65 2.0 66 1.0
 60 67 1.0 68 1.0 69 1.0
 61 70 2.0 71 2.0
 62 70 2.0 72 2.0
 63 73 2.0
 64 74 1.0 75 2.0
 65 71 2.0 76 2.0
 66
 67
 68
 69
 70 77 2.0
 71 78 2.0
 72 79 2.0 80 1.0
 73 79 2.0 81 2.0
 74 81 1.0 82 1.0
 75
 76 83 1.0 84 2.0
 77 85 2.0 86 1.0
 78 85 2.0 87 2.0
 79 88 1.0
 80 89 1.5 86 1.5
 81 90 2.0
 82 91 1.0 92 1.0 93 1.0
 83 87 1.0 94 1.0
 84
 85 95 1.0
 86 96 1.5
 87 97 2.0
 88
 89 98 2.0 99 2.0
 90
 91
 92
 93
 94 100 1.0 101 1.0 102 1.0
 95
 96 103 2.0 104 2.0
 97
 98 103 2.0 105 2.0
 99 106 2.0 107 1.0
 100
 101
 102
 103 108 2.0
 104 109 2.0 110 1.0
 105 111 2.0 112 2.0
 106 112 2.0 113 2.0
 107
 108 114 2.0 115 2.0
 109 115 2.0 116 2.0
 110
 111 114 2.0 117 2.0
 112 118 2.0
 113 119 1.0 120 2.0
 114 121 2.0
 115 122 2.0
 116 123 1.0 124 2.0
 117 125 2.0 126 1.0
 118 125 2.0 127 2.0
 119 127 1.0 128 1.0
 120
 121 129 2.0 130 1.0
 122 129 2.0 131 2.0
 123 131 1.0 132 1.0
 124
 125 133 1.0
 126
 127 134 2.0
 128 135 1.0 136 1.0 137 1.0
 129 138 1.0
 130
 131 139 2.0
 132 140 1.0 141 1.0 142 1.0
 133
 134
 135
 136
 137
 138
 139
 140
 141
 142
 143 144 2.0 145 2.0
 144 146 2.0 147 2.0
 145 148 2.0 149 1.0
 146 150 2.0 151 2.0
 147 152 2.0 153 2.0
 148 151 2.0 154 2.0
 149
 150 155 2.0 156 2.0
 151 157 2.0
 152 156 2.0 158 2.0
 153 159 2.0 160 1.0
 154 161 1.0 162 2.0
 155 163 2.0 164 1.5
 156 165 2.0
 157 163 2.0 166 2.0
 158 167 2.0 168 2.0
 159 168 2.0 169 1.0
 160
 161 166 1.0 170 1.0
 162
 163 171 1.0
 164 172 1.0 173 1.5
 165 174 2.0 173 1.5
 166 175 2.0
 167 174 2.0 176 2.0
 168 177 2.0
 169
 170 178 1.0 179 1.0 180 1.0
 171
 172 181 2.0 182 2.0
 173 183 1.0
 174 184 1.0
 175
 176 185 1.0 186 2.0
 177 185 1.0 187 2.0
 178
 179
 180
 181 188 2.0 189 2.0
 182 190 2.0 191 1.0
 183 188 2.0 192 2.0
 184
 185 193 1.0
 186
 187
 188 194 2.0
 189 195 2.0 196 2.0
 190 196 2.0 197 2.0
 191
 192 198 2.0 199 1.0
 193 200 1.0 201 1.0 202 1.0
 194 203 2.0 204 2.0
 195 203 2.0 205 2.0
 196 206 2.0
 197 207 1.0 208 2.0
 198 204 2.0 209 2.0
 199
 200
 201
 202
 203 210 2.0
 204 211 2.0
 205 212 2.0 213 1.0
 206 212 2.0 214 2.0
 207 214 1.0 215 1.0
 208
 209 216 1.0 217 2.0
 210 218 2.0 219 1.0
 211 218 2.0 220 2.0
 212 221 1.0
 213 222 1.5 219 1.5
 214 223 2.0
 215 224 1.0 225 1.0 226 1.0
 216 220 1.0 227 1.0
 217
 218 228 1.0
 219 229 1.5
 220 230 2.0
 221
 222 231 2.0 232 2.0
 223
 224
 225
 226
 227 233 1.0 234 1.0 235 1.0
 228
 229 236 2.0 237 2.0
 230
 231 236 2.0 238 2.0
 232 239 2.0 240 1.0
 233
 234
 235
 236 241 2.0
 237 242 2.0 243 1.0
 238 244 2.0 245 2.0
 239 245 2.0 246 2.0
 240
 241 247 2.0 248 2.0
 242 248 2.0 249 2.0
 243
 244 247 2.0 250 2.0
 245 251 2.0
 246 252 1.0 253 2.0
 247 254 2.0
 248 255 2.0
 249 256 1.0 257 2.0
 250 258 2.0 259 1.0
 251 258 2.0 260 2.0
 252 260 1.0 261 1.0
 253
 254 262 2.0 263 1.0
 255 262 2.0 264 2.0
 256 264 1.0 265 1.0
 257
 258 266 1.0
 259
 260 267 2.0
 261 268 1.0 269 1.0 270 1.0
 262 271 1.0
 263
 264 272 2.0
 265 273 1.0 274 1.0 275 1.0
 266
 267
 268
 269
 270
 271
 272
 273
 274
 275
 276 277 2.0 278 2.0
 277 279 2.0 280 2.0
 278 281 2.0 282 1.0
 279 283 2.0 284 2.0
 280 285 2.0 286 2.0
 281 284 2.0 287 2.0
 282
 283 288 2.0 289 2.0
 284 290 2.0
 285 289 2.0 291 2.0
 286 292 2.0 293 1.0
 287 294 1.0 295 2.0
 288 296 2.0 297 1.5
 289 298 2.0
 290 296 2.0 299 2.0
 291 300 2.0 301 2.0
 292 301 2.0 302 1.0
 293
 294 299 1.0 303 1.0
 295
 296 304 1.0
 297 305 1.0 306 1.5
 298 307 2.0 306 1.5
 299 308 2.0
 300 307 2.0 309 2.0
 301 310 2.0
 302
 303 311 1.0 312 1.0 313 1.0
 304
 305 314 2.0 315 2.0
 306 316 1.0
 307 317 1.0
 308
 309 318 1.0 319 2.0
 310 318 1.0 320 2.0
 311
 312
 313
 314 321 2.0 322 2.0
 315 323 2.0 324 1.0
 316 321 2.0 325 2.0
 317
 318 326 1.0
 319
 320
 321 327 2.0
 322 328 2.0 329 2.0
 323 329 2.0 330 2.0
 324
 325 331 2.0 332 1.0
 326 333 1.0 334 1.0 335 1.0
 327 336 2.0 337 2.0
 328 336 2.0 338 2.0
 329 339 2.0
 330 340 1.0 341 2.0
 331 337 2.0 342 2.0
 332
 333
 334
 335
 336 343 2.0
 337 344 2.0
 338 345 2.0 346 1.0
 339 345 2.0 347 2.0
 340 347 1.0 348 1.0
 341
 342 349 1.0 350 2.0
 343 351 2.0 352 1.0
 344 351 2.0 353 2.0
 345 354 1.0
 346 355 1.5 352 1.5
 347 356 2.0
 348 357 1.0 358 1.0 359 1.0
 349 353 1.0 360 1.0
 350
 351 361 1.0
 352 362 1.5
 353 363 2.0
 354
 355 364 2.0 365 2.0
 356
 357
 358
 359
 360 366 1.0 367 1.0 368 1.0
 361
 362 369 2.0 370 2.0
 363
 364 369 2.0 371 2.0
 365 372 2.0 373 1.0
 366
 367
 368
 369 374 2.0
 370 375 2.0 376 1.0
 371 377 2.0 378 2.0
 372 378 2.0 379 2.0
 373
 374 380 2.0 381 2.0
 375 381 2.0 382 2.0
 376
 377 380 2.0 383 2.0
 378 384 2.0
 379 385 1.0 386 2.0
 380 387 2.0
 381 388 2.0
 382 389 1.0 390 2.0
 383 391 2.0 392 1.0
 384 391 2.0 393 2.0
 385 393 1.0 394 1.0
 386
 387 395 2.0 396 1.0
 388 395 2.0 397 2.0
 389 397 1.0 398 1.0
 390
 391 399 1.0
 392
 393 400 2.0
 394 401 1.0 402 1.0 403 1.0
 395 404 1.0
 396
 397 405 2.0
 398 406 1.0 407 1.0 408 1.0
 399
 400
 401
 402
 403
 404
 405
 406
 407
 408

